@<TRIPOS>MOLECULE
1cvu_deposited_1
53  52  1  0  0
SMALL
FORMAL_CHARGES
@<TRIPOS>ATOM
    1 C1        29.3970    28.4920    44.4070 C.2        1 ****  0.0000
    2 O1        30.5710    28.0970    44.6390 O.co2      1 ****  -0.50
    3 C2        28.3560    27.9310    45.3720 C.3        1 ****  0
    4 O2        28.9920    29.2750    43.5010 O.co2      1 ****  -0.50
    5 C3        27.1850    27.5080    44.5080 C.3        1 ****  0
    6 C4        27.3560    26.0850    44.0330 C.3        1 ****  0
    7 C5        26.2800    25.7510    43.0570 C.2        1 ****  0
    8 C6        25.3980    24.7620    43.2450 C.2        1 ****  0
    9 C7        25.3950    23.8900    44.4510 C.3        1 ****  0
   10 C8        24.0630    23.9360    45.1080 C.2        1 ****  0
   11 C9        23.8910    23.8730    46.4330 C.2        1 ****  0
   12 C10       25.0100    23.7480    47.4050 C.3        1 ****  0
   13 C11       24.5200    23.0770    48.6300 C.2        1 ****  0
   14 C12       25.2540    22.2570    49.3860 C.2        1 ****  0
   15 C13       26.6680    21.8940    49.1190 C.3        1 ****  0
   16 C14       27.3170    21.5450    50.4130 C.2        1 ****  0
   17 C15       28.6390    21.4850    50.5910 C.2        1 ****  0
   18 C16       29.6150    21.7600    49.5060 C.3        1 ****  0
   19 C17       30.0350    23.2070    49.5680 C.3        1 ****  0
   20 C18       31.5150    23.3310    49.2840 C.3        1 ****  0
   21 C19       32.1970    23.9290    50.4920 C.3        1 ****  0
   22 C20       33.4990    24.5650    50.0710 C.3        1 ****  0
   23 H1        28.7740    27.0810    45.9160 H          1 ****  0
   24 H2        28.0610    28.7080    46.0820 H          1 ****  0
   25 H3        26.2600    27.5890    45.0840 H          1 ****  0
   26 H4        27.0980    28.1680    43.6450 H          1 ****  0
   27 H5        28.3290    25.9730    43.5490 H          1 ****  0
   28 H6        27.3240    25.4040    44.8870 H          1 ****  0
   29 H7        26.2150    26.3410    42.1520 H          1 ****  0
   30 H8        24.6450    24.5830    42.4880 H          1 ****  0
   31 H9        25.6220    22.8610    44.1590 H          1 ****  0
   32 H10       26.1630    24.2190    45.1530 H          1 ****  0
   33 H11       23.1890    24.0270    44.4740 H          1 ****  0
   34 H12       22.8830    23.9140    46.8260 H          1 ****  0
   35 H13       25.8190    23.1610    46.9630 H          1 ****  0
   36 H14       25.3990    24.7390    47.6540 H          1 ****  0
   37 H15       23.4960    23.2670    48.9270 H          1 ****  0
   38 H16       24.7880    21.8230    50.2610 H          1 ****  0
   39 H17       26.7110    21.0400    48.4380 H          1 ****  0
   40 H18       27.1900    22.7360    48.6570 H          1 ****  0
   41 H19       26.6750    21.3310    51.2580 H          1 ****  0
   42 H20       29.0250    21.2230    51.5680 H          1 ****  0
   43 H21       30.4840    21.1080    49.6280 H          1 ****  0
   44 H22       29.1630    21.5440    48.5350 H          1 ****  0
   45 H23       29.4700    23.7860    48.8310 H          1 ****  0
   46 H24       29.8090    23.6140    50.5590 H          1 ****  0
   47 H25       31.9440    22.3500    49.0620 H          1 ****  0
   48 H26       31.6700    23.9740    48.4130 H          1 ****  0
   49 H27       31.5520    24.6840    50.9520 H          1 ****  0
   50 H28       32.3890    23.1480    51.2350 H          1 ****  0
   51 H29       33.3080    25.4770    49.4980 H          1 ****  0
   52 H30       34.0970    24.8230    50.9480 H          1 ****  0
   53 H31       34.0740    23.8760    49.4470 H          1 ****  0
@<TRIPOS>BOND
    1     1     2 ar
    2     1     3 1
    3     1     4 ar
    4     3     5 1
    5     3    23 1
    6     3    24 1
    7     5     6 1
    8     5    25 1
    9     5    26 1
   10     6     7 1
   11     6    27 1
   12     6    28 1
   13     7     8 2
   14     7    29 1
   15     8     9 1
   16     8    30 1
   17     9    10 1
   18     9    31 1
   19     9    32 1
   20    10    11 2
   21    10    33 1
   22    11    12 1
   23    11    34 1
   24    12    13 1
   25    12    35 1
   26    12    36 1
   27    13    14 2
   28    13    37 1
   29    14    15 1
   30    14    38 1
   31    15    16 1
   32    15    39 1
   33    15    40 1
   34    16    17 2
   35    16    41 1
   36    17    18 1
   37    17    42 1
   38    18    19 1
   39    18    43 1
   40    18    44 1
   41    19    20 1
   42    19    45 1
   43    19    46 1
   44    20    21 1
   45    20    47 1
   46    20    48 1
   47    21    22 1
   48    21    49 1
   49    21    50 1
   50    22    51 1
   51    22    52 1
   52    22    53 1
@<TRIPOS>SUBSTRUCTURE
1   ****   1
